**SoldworksSimulation2Calculix.zip example 
**from user "calculix09files" in yahoo groups
**Example modified
****
****
*HEADING
Scaffold example
***
*INCLUDE,INPUT=Nall.inp
**Contains Node Sets:NSET1
*INCLUDE,INPUT=Eall.inp
**Contains Ele Sets:PART1_EG1
*INCLUDE,INPUT=Nbou.inp
**Contains Node Sets:BC_NSET1
***
***
*MATERIAL,NAME=MAT1
*ELASTIC
7850,0.3
***
*SOLID SECTION,ELSET=PART1_EG1,MATERIAL=MAT1
***
*BOUNDARY
BC_NSET1,1,3
***
*STEP
*STATIC
***
*CLOAD
*INCLUDE,INPUT=cloadLis.inp
**Contains Node,Dir,load mag.
***
*NODE FILE
U
*EL FILE
S,U
*END STEP
